test/data/pti/B4GIC.RAW
 0,    100.00, 33, 0, 1, 60.00       / June 12, 2024 14:49:27; Simulator Version 23; BuildDate 2023_10_31
 
 
    1,'Bus 1       ', 765.0000,1,   1,   1,   1,0.99870425,   8.044125, 1.10000, 0.90000, 1.10000, 0.90000
    2,'Bus 2       ', 765.0000,1,   1,   1,   1,0.99687243,   2.290289, 1.10000, 0.90000, 1.10000, 0.90000
    3,'Bus 3       ',  20.0000,2,   1,   1,   1,1.00119281,  10.333524, 1.10000, 0.90000, 1.10000, 0.90000
    4,'Bus 4       ',  20.0000,3,   1,   1,   1,1.00000000,   0.000000, 1.10000, 0.90000, 1.10000, 0.90000
0 / END OF BUS DATA, BEGIN LOAD DATA
0 / END OF LOAD DATA, BEGIN FIXED SHUNT DATA
0 / END OF FIXED SHUNT DATA, BEGIN GENERATOR DATA
    3,'1 ',  1000.000,    57.240,    57.240,    57.240,1.09710,    0,  2000.000,   0.00000,   0.18000,   0.00000,   0.00000,1.00000,1,  100.0,  2000.000,     0.000,   1,1.0000,   0,1.0000,   0,1.0000,   0,1.0000,0, 1.0000
    4,'1 ',  -992.863,   122.919,  9900.000, -9900.000,1.00000,    0,  2000.000,   0.00000,   1.00000,   0.00000,   0.00000,1.00000,1,  100.0,  1000.000,     0.000,   1,1.0000,   0,1.0000,   0,1.0000,   0,1.0000,0, 1.0000
0 / END OF GENERATOR DATA, BEGIN BRANCH DATA
     1,     2,'1 ',5.13000E-4,1.00000E-2,0.00000E-1,2000.00,   0.00,   0.00,  0.00000,  0.00000,  0.00000,  0.00000, 1,1,   0.00,   1,1.0000,   0,1.0000,   0,1.0000,   0,1.0000
0 / END OF BRANCH DATA, BEGIN TRANSFORMER DATA
     1,     3,    0,'1 ',1,1,1,0.00000E-1,0.00000E-1,2,'            ', 1,   1,1.0000,   0,1.0000,   0,1.0000,   0,1.0000,'            '
2.10040E-6,8.40160E-5, 100.00
1.000000, 13.800,   0.000,2000.00,   0.00,   0.00, 0,     0,1.500000,0.510000,1.500000,0.510000,159, 0, 0.00000, 0.00000,  0.000
6.900000,138.000
     2,     4,    0,'1 ',1,1,1,0.00000E-1,0.00000E-1,2,'            ', 1,   1,1.0000,   0,1.0000,   0,1.0000,   0,1.0000,'            '
2.10040E-6,8.40160E-5, 100.00
1.000000,138.000,   0.000,2000.00,   0.00,   0.00, 0,     0,1.500000,0.510000,1.500000,0.510000,159, 0, 0.00000, 0.00000,  0.000
6.900000,138.000
0 / END OF TRANSFORMER DATA, BEGIN AREA DATA
   1,    0,     0.000,     1.000,'Home        '
0 / END OF AREA DATA, BEGIN TWO-TERMINAL DC DATA
0 / END OF TWO-TERMINAL DC DATA, BEGIN VOLTAGE SOURCE CONVERTER DATA
0 / END OF VOLTAGE SOURCE CONVERTER DATA, BEGIN IMPEDANCE CORRECTION DATA
0 / END OF IMPEDANCE CORRECTION DATA, BEGIN MULTI-TERMINAL DC DATA
0 / END OF MULTI-TERMINAL DC DATA, BEGIN MULTI-SECTION LINE DATA
0 / END OF MULTI-SECTION LINE DATA, BEGIN ZONE DATA
   1,'1           '
0 / END OF ZONE DATA, BEGIN INTER-AREA TRANSFER DATA
0 / END OF INTER-AREA TRANSFER DATA, BEGIN OWNER DATA
    1,'1'
0 / END OF OWNER DATA, BEGIN FACTS CONTROL DEVICE DATA
0 / END OF FACTS CONTROL DEVICE DATA, BEGIN SWITCHED SHUNT DATA
    1,0,0,0,0.98000,0.96000,    0,100.0,'        ',  -50.00, 9,  -5.00, 1,  -5.00, 9,   5.00, 1,   5.00
0 /END OF SWITCHED SHUNT DATA, BEGIN GNE DEVICE DATA
0 /END OF GNE DEVICE DATA
0 / END OF INDUCTION MACHINE DATA
Q
